FoamFile
{
    version     2.0;
    format      ascii;
    class       dictionary;
    location    "system";
    object      fvSchemes;
}

ddtSchemes
{
    default         Euler;
}

gradSchemes
{
    default         Gauss linear;
    limited         cellLimited Gauss linear 1;
}

divSchemes
{
    default                         none;

    "div\(phi,alpha.*\)"            Gauss vanLeer;
    "div\(phir,alpha.*\)"           Gauss vanLeer;

    "div\(alphaPhi.*,(kappa|lambda).*\)"
                                    Gauss upwind;

    "div\(F(0|2)Phi.*,(kappa|lambda).*\)"
                                    Gauss upwind;

    "div\(alphaRhoPhi.*,U.*\)"      Gauss linearUpwind limited;
    "div\(phi.*,U.*\)"              Gauss linearUpwind limited;

    "div\(alphaPhi.*,(h|e|f).*\)"   Gauss limitedLinear 1;
    "div\(alphaRhoPhi.*,K.*\)"      Gauss limitedLinear 1;
    "div\(alphaPhi.*,p\)"           Gauss limitedLinear 1;

    "div\(alphaRhoPhi.*,(k|epsilon|omega).*\)"
                                    Gauss upwind;
    "div\(phim,(k|epsilon|omega)m\)"
                                    Gauss upwind;

    "div\(\(\(\(alpha.*\*thermo:rho.*\)\*nuEff.*\)\*dev2\(T\(grad\(U.*\)\)\)\)\)"
                                    Gauss linear;
}

laplacianSchemes
{
    default         Gauss linear uncorrected;
}

interpolationSchemes
{
    default         linear;
}

wallDist
{
    method          Poisson;
    nRequired       true;
}

snGradSchemes
{
    default         uncorrected;
}
