FoamFile
{
    version     2.0;
    format      ascii;
    class       dictionary;
    location    "system";
    object      fvSolution;
}

solvers
{
    "alpha.*"
    {
        nAlphaCorr      2;
        nMomentCorr     2;
        nAlphaSubCycles 1;
    }

    bubbles
    {
        nCorr                1;
        tolerance            1e-6;
        scale                true;
        sourceUpdateInterval 1;
        solveOnFinalIterOnly true;
    }

    p_rgh
    {
        solver          GAMG;
        smoother        DIC;
        tolerance       1e-6;
        relTol          0;
    }

    p_rghFinal
    {
        $p_rgh;
        relTol          0;
        tolerance       1e-8;
    }

    "(U|kappa|lambda).*"
    {
        solver          smoothSolver;
        smoother        symGaussSeidel;
        tolerance       1e-6;
        relTol          0;
        minIter         1;
    }

    "e.*"
    {
        solver          smoothSolver;
        smoother        symGaussSeidel;
        tolerance       1e-6;
        relTol          0;
    }

    "(k|epsilon|Theta).*"
    {
        solver          smoothSolver;
        smoother        symGaussSeidel;
        tolerance       1e-6;
        relTol          0;
        minIter         1;
    }

    "f.*"
    {
        solver          PBiCGStab;
        preconditioner  DILU;
        tolerance       1e-6;
        relTol          0;
    }
}

PIMPLE
{
    nOuterCorrectors 3;
    nCorrectors      2;
    nNonOrthogonalCorrectors 0;
}
