FoamFile
{
    version     2.0;
    format      ascii;
    class       dictionary;
    location    "constant";
    object      turbulenceProperties.air;
}

simulationType  RAS;

RAS
{
	model       mixtureKEpsilon;

	turbulence  on;
	printCoeffs on;

	mixtureKEpsilonCoeffs
	{
		Cp 1;
		C3 1;
	}
}
